Circuit: * C:\Users\schmi\Documents\Ecole\ENIB\2ème année\S4P\Electronique S4P\Projet vuvuzela\Projet-Vuvuzela\ltspice\passiv_RLC.asc

.OP point found by inspection.

Date: Sat May 06 20:28:34 2023
Total elapsed time: 9.567 seconds.

tnom = 27
temp = 27
method = modified trap
totiter = 4039598
traniter = 4039598
tranpoints = 2019800
accept = 1983630
rejected = 36170
matrix size = 12
fillins = 0
solver = Normal
Matrix Compiler1: 500 bytes object code size  0.1/0.1/[0.1]
Matrix Compiler2: 832 bytes object code size  0.1/0.1/[0.0]

